2019	2018	2019	2019	2020	2018	2019	2017	2019	2019	2018	2020	2017	2020	2018	2019	2020	2017	2018	2018	2018	2018	2018	2017	2018	2019	2018	2019	2020	2019	2018	2018	2020	2018	2017	2017	2017	2018	2017	2020	2019	2017	2019	2019	2020	2018	2020	2020	2019	2019	2020	2020	2017	2017	2020	2020	2020	2020	2020	2017	2018	2019	2017	2018	2020	2019	2017	2017	2017	2017	2017	2018	2018	2017	2017	2018	2017	2018	2018	2020	2020	2020	2018	2018	2019	2017	2020	2020	2020	2020	2017	2017	2017	2019	2018	2018	2020	2020	2019	2017	
GUILHERME RESENDE BORGES!	LUIS EDUARDO DE SOUZA SANTOS	RICARDO TULIO GANDELMAN	ANDRE REIS DE BRITO	AQUISSON THEYLLON GOMES DA SILVA	WESLEY DE SOUZA BEZERRA	VANESSA BARBOSA ROLIM	ROBSON WAGNER ALBUQUERQUE DE MEDEIROS	BRUNO CAMPOS DE AZEVEDO	MANOELA DOS REIS OLIVEIRA	FERNANDO LUIS BORDIGNON	TATIANE GOMES GUIMARAES	JOYCE MEIRE DA SILVA FRANCA	FABIO PEDROTTI TERRA	ROGER SANTOS FERREIRA	LEANDRO NEGRI ZANOTTO	LIVIA CAROLINA GOUVEA DE FARIA	MIGUEL ANGEL ROJAS MEZA	JOSE HENRIQUE DEBASTIANI ANDREIS	ARIANE NUNES RODRIGUES	EDUARDO SMIL PRUTCHI	LUCAS CHESINI OKIMOTO	TIAGO ANTONIO PARAIZO	DIVINO CESAR SOARES LUCAS	YORAN EDSON LEICHSENRING!	JULLIANO ROSA NASCIMENTO!	GABRIEL DA SILVA VIEIRA	VINICIUS MATOS DA SILVEIRA FRAGA	CAMIL SAMER ZAHLAN REDWAN	DEIVISTON DA SILVA AGUENA	MATHEUS FRANTZ DE FARIA	EDMILSON BARBALHO CAMPOS NETO	LUIS FERNANDO ANTONIOLI	LUCIANA BULGARELLI CARVALHO	ANA PAULA CARVALHO CAVALCANTI FURTADO	LEO MOREIRA SILVA	MATHEUS ALVES	ALTAIR BRANDAO MENDES	MARCILIO OLINTO DE OLIVEIRA LEMOS	GUILHERME MARTINS	DERIKS KARLAY DIAS COSTA!	HEMIR DA CUNHA SANTIAGO	ALEX SILVA TORRES	GABRIEL FERREIRA ALVES	MAURO LOURENCO PEDRA	FRED DE CASTRO SANTOS	FABIO LUIZ DAUDT MORAIS	LEONARDO FERNANDES BERNARDES	PEDRO DIAMEL MARRERO FERNANDEZ	VICTOR SANCHES PORTELLA	RODOLFO VIEIRA VALENTIM	FLAVIA JANINE ROSANTE BEO	ANDRE MACEDO	FERNANDO AVILA FOSSI SILVEIRA	JONATAS OLIVEIRA LIMA DA SILVA	FABRICIO NEITZKE FERREIRA	KAREN STEFANY MARTINS	ULISSES TELEMACO NETO	MARCOS VINICIUS GUIMARAES MARTINS FILHO	LUIS GUILHERME CORDIOLLI RUSSI	CARLOS MAGNO DE OLIVEIRA ARAUJO	VITOR SILVA MONTES	THIAGO AUGUSTO LOPES GENEZ	DIOGO MACHADO GONCALVES	HEBER AUGUSTO SCACHETTI	DENIS JOSE SOUSA DE ALBUQUERQUE	TULIO CORREA LOURES	RAIMUNDO LUCIVALDO CRUZ FIGUEIRA	DIEGO LEONARDO CHAVES SILVA	FILIPE MARQUES CHAVES DE ARRUDA	ALEXANDRE MENDES LIMA	RAFAEL FERREIRA TOLEDO	PASQUELINE DANTAS SCAICO!	ANDERSON DA SILVA MARTINS	RUBENS LACERDA QUEIROZ	EDUARDO ALEXANDRE FERREIRA SILVA	FABIO FRANCO DE OLIVEIRA!	RANIERE FERNANDES DE MEDEIROS	FABIO NOGUEIRA DE SOUZA	MARCELO ROSAS ALVES	OSMARIO DE CARVALHO SANTOS FILHO	EVARISTO CALISTO NHASSENGO	JAIRO MATHEUS VILACA ALVES	MARCIO VINICIUS DE QUEIROZ SANTOS	ARLINDO RODRIGUES GALVAO FILHO	CRISTOVAM DERVALMAR RODRIGUES TEIXEIRA FILHO	EDUARDO KAZUO NAKAO	JOAO PEDRO SCHMITT	HECTOR NATAN BATISTA PINHEIRO	LEONARDO FERNANDES MENDONCA DE OLIVEIRA	JOYCE SIQUEIRA	LUIZ PAULO DAMILTON CORREA	RODRIGO SOARES E SILVA	WALBER JOSE ADRIANO SILVA	DANIELLE NOVAES DE SIQUEIRA VALVERDE	CIRO LUIZ ARAUJO CEISSLER	BARTIRA PARAGUACU FALCAO DANTAS ROCHA	RAFAEL JOSE DE ALENCAR ALMEIDA	RACHEL VITAL SIMOES	TELMO OLIVEIRA DE JESUS	
PEDRO OLMO STANCIOLI VAZ DE MELO	MICHEL DOS SANTOS SOARES	SIDNEY CUNHA DE LUCENA	TOACY CAVALCANTE DE OLIVEIRA	ANTONIO CASTELO FILHO	ANTONIO CASTELO FILHO	FABIANO BALDO	NELSON SOUTO ROSA	RUY JOSE GUERRA BARRETTO DE QUEIROZ	MICHEL DOS SANTOS SOARES	MAURO ROISENBERG	RAQUEL OLIVEIRA PRATES	MICHEL DOS SANTOS SOARES	PAULO LILLES JORGE DREWS JUNIOR	DENILSON ALVES PEREIRA	GUIDO COSTA SOUZA DE ARAUJO	ANA CRISTINA BICHARRA GARCIA	JOSE ALBERTO CUMINATO	CLYDE WILLIAM FRAISSE	SIMONE CRISTIANE DOS SANTOS LIMA	LEONARDO GRESTA PAULINO MURTA	ANA CAROLINA LORENA	DENILSON ALVES PEREIRA	GUIDO COSTA SOUZA DE ARAUJO	FABIANO BALDO	DIANE CASTONGUAY	FABRIZZIO ALPHONSUS ALVES DE MELO NUNES SOARES	DJAMEL FAWZI HADJ SADOK	ANA LUCIA CETERTICH BAZZAN	NALVO FRANCO DE ALMEIDA JUNIOR	PAULO LILLES JORGE DREWS JUNIOR	UIRA KULESZA	RODOLFO JARDIM DE AZEVEDO	GUIDO COSTA SOUZA DE ARAUJO	SILVIO ROMERO DE LEMOS MEIRA	UIRA KULESZA	ANA LUCIA CETERTICH BAZZAN	THAIS VASCONCELOS BATISTA	IGUATEMI EDUARDO DA FONSECA	PAULO SERGIO LOPES DE SOUZA	EWERTON RAMOS GRANHEN	TSANG ING REN	GUIDO COSTA SOUZA DE ARAUJO	DANIELA GORSKI TREVISAN	MONICA FERREIRA DA SILVA	UMBERTO SOUZA DA COSTA	ANA CRISTINA BICHARRA GARCIA	DEMOSTENES ZEGARRA RODRIGUEZ	TSANG ING REN	MARCEL KENJI DE CARLI SILVA	RODOLFO DA SILVA VILLACA	KARLA VITTORI	RUY JOSE GUERRA BARRETTO DE QUEIROZ	RODOLFO DA SILVA VILLACA	PAULO SERGIO MARQUES DOS SANTOS	LUCIANO VOLCAN AGOSTINI	PEDRO OLMO STANCIOLI VAZ DE MELO	TOACY CAVALCANTE DE OLIVEIRA	GUIDO COSTA SOUZA DE ARAUJO	EDMUNDO ROBERTO MAURO MADEIRA	IGUATEMI EDUARDO DA FONSECA	PAULO SERGIO LOPES DE SOUZA	EDMUNDO ROBERTO MAURO MADEIRA	EDMUNDO ROBERTO MAURO MADEIRA	GUIDO COSTA SOUZA DE ARAUJO	UMBERTO SOUZA DA COSTA	PEDRO OLMO STANCIOLI VAZ DE MELO	SIMONE CRISTIANE DOS SANTOS LIMA	GIORDANO RIBEIRO EULALIO CABRAL	AUGUSTO CEZAR ALVES SAMPAIO	MONICA FERREIRA DA SILVA	UMBERTO SOUZA DA COSTA	RUY JOSE GUERRA BARRETTO DE QUEIROZ	BRUNO ZATT	FABIO FERRENTINI SAMPAIO	THAIS VASCONCELOS BATISTA	RODOLFO DA SILVA VILLACA	CLAUIRTON DE ALBUQUERQUE SIEBRA	NELSON SOUTO ROSA	SIMONE CRISTIANE DOS SANTOS LIMA	SIMONE CRISTIANE DOS SANTOS LIMA	JOSE ALBERTO CUMINATO	DJAMEL FAWZI HADJ SADOK	SIDNEY CUNHA DE LUCENA	TELMA WOERLE DE LIMA SOARES	IVANILDO SILVA ABREU	ALEXANDRE LUIS MAGALHAES LEVADA	FABIANO BALDO	TSANG ING REN	ANDRE LUIS DE MEDEIROS SANTOS	FABRIZZIO ALPHONSUS ALVES DE MELO NUNES SOARES	RAQUEL OLIVEIRA PRATES	SIDNEY CUNHA DE LUCENA	DJAMEL FAWZI HADJ SADOK	RUY JOSE GUERRA BARRETTO DE QUEIROZ	GUIDO COSTA SOUZA DE ARAUJO	THAIS VASCONCELOS BATISTA	DARLINTON BARBOSA FERES CARVALHO	TOACY CAVALCANTE DE OLIVEIRA	MICHEL DOS SANTOS SOARES	
