UFMG-CC-7	PEDRO OLMO STANCIOLI VAZ DE MELO	GUILHERME RESENDE BORGES	INGLES	BRASIL
UFMG-CC-7	RAQUEL OLIVEIRA PRATES	TATIANE GOMES GUIMARAES	INGLES	BRASIL
UNICAMP-CC-7	GUIDO COSTA SOUZA DE ARAUJO	LEANDRO NEGRI ZANOTTO	INGLES	BRASIL
UNIFESP-CC-4	ANA CAROLINA LORENA	LUCAS CHESINI OKIMOTO	INGLES	BRASIL
UNICAMP-CC-7	GUIDO COSTA SOUZA DE ARAUJO	DIVINO CESAR SOARES LUCAS	INGLES	BRASIL
UFPE-CC-7	DJAMEL FAWZI HADJ SADOK	VINICIUS MATOS DA SILVEIRA FRAGA	INGLES	BRASIL
UNICAMP-CC-7	RODOLFO JARDIM DE AZEVEDO	LUIS FERNANDO ANTONIOLI	INGLES	BRASIL
UNICAMP-CC-7	GUIDO COSTA SOUZA DE ARAUJO	ALEX SILVA TORRES	INGLES	BRASIL
UFPE-CC-7	TSANG ING REN	PEDRO DIAMEL MARRERO FERNANDEZ	INGLES	BRASIL
USP-CC-6	MARCEL KENJI DE CARLI SILVA	VICTOR SANCHES PORTELLA	INGLES	BRASIL
UFES-I-4	RODOLFO DA SILVA VILLACA	RODOLFO VIEIRA VALENTIM	INGLES	BRASIL
UFMG-CC-7	PEDRO OLMO STANCIOLI VAZ DE MELO	KAREN STEFANY MARTINS	INGLES	BRASIL
UFRJ-ESC-7	TOACY CAVALCANTE DE OLIVEIRA	ULISSES TELEMACO NETO	INGLES	BRASIL
UNICAMP-CC-7	GUIDO COSTA SOUZA DE ARAUJO	MARCOS VINICIUS GUIMARAES MARTINS FILHO	INGLES	BRASIL
UNICAMP-CC-7	EDMUNDO ROBERTO MAURO MADEIRA	THIAGO AUGUSTO LOPES GENEZ	INGLES	BRASIL
UFPE-CC-7	AUGUSTO CEZAR ALVES SAMPAIO	FILIPE MARQUES CHAVES DE ARRUDA	INGLES	BRASIL
UFPE-CC-7	ANDRE LUIS DE MEDEIROS SANTOS	LEONARDO FERNANDES MENDONCA DE OLIVEIRA	INGLES	BRASIL
UFPE-CC-7	DJAMEL FAWZI HADJ SADOK	WALBER JOSE ADRIANO SILVA	INGLES	BRASIL
UNICAMP-CC-7	GUIDO COSTA SOUZA DE ARAUJO	CIRO LUIZ ARAUJO CEISSLER	INGLES	BRASIL
